third_party/gridlab-d-networks/IEEE_13_NoRegs_Ref/IEEE_13_NoRegs_Ref.glm
// $Id: IEEE13-Feb27.glm
//	Copyright (C) 2011 Battelle Memorial Institute

// Notes AE:
// - ReferenceFeeders/IEEE_13.glm
// - Removed regulator
// - Replaced distributed load with standard load in l671_dist and l632
// - Adjusted swing voltage to 1.05 across all phases


#set iteration_limit=100000;

#set suppress_repeat_messages=0;

clock {
	timezone EST+5EDT;
	starttime '2000-01-01 0:00:00';
	stoptime '2000-01-01 0:00:01';
}

module powerflow {
	solver_method NR;
	line_capacitance true;
  default_resistance 1e-5;
	}

#include "uot_data.glm"

// Overhead line configurations
object line_configuration {
  name lc601;
  z11 0.3465+1.0179i;
  z12 0.1560+0.5017i;
  z13 0.1580+0.4236i;
  z21 0.1560+0.5017i;
  z22 0.3375+1.0478i;
  z23 0.1535+0.3849i;
  z31 0.1580+0.4236i;
  z32 0.1535+0.3849i;
  z33 0.3414+1.0348i;
}
 

object line_configuration {
  name lc602;
  z11 0.7526+1.1814i;
  z12 0.1580+0.4236i;
  z13 0.1560+0.5017i;
  z21 0.1580+0.4236i;
  z22 0.7475+1.1983i;
  z23 0.1535+0.3849i;
  z31 0.1560+0.5017i;
  z32 0.1535+0.3849i;
  z33 0.7436+1.2112i;
}

object line_configuration {
  name lc603; 
  z22 1.3294+1.3471i;
  z23 0.2066+0.4591i;  
  z32 0.2066+0.4591i;
  z33 1.3238+1.3569i;
  
}  

object line_configuration {
  name lc604;
  z11 1.3238+1.3569i;
  z13 0.2066+0.4591i;
  z31 0.2066+0.4591i;
  z33 1.3294+1.3471i;
}

object line_configuration {
  name lc605;
  z33 1.3292+1.3475i;
}

//Underground line configuration

object line_configuration {
   name lc606;
   z11 0.7982+0.4463i;
   z12 0.3192+0.0328i;
   z13 0.2849-0.0143i;
   z21 0.3192+0.0328i;
   z22 0.7891+0.4041i;
   z23 0.3192+0.0328i;
   z31 0.2849-0.0143i;
   z32 0.3192+0.0328i;
   z33 0.7982+0.4463i;
}

object line_configuration {
   name lc607;
   z11 1.3425+0.5124i;
}

// Define line objects
object overhead_line {
     phases "BCN";
     name line_632-645;
     from l632;
     to l645;
     length 500;
     configuration lc603;
}

object overhead_line {
     phases "BCN";
     name line_645-646;
    from l645;
     to l646;
     length 300;
     configuration lc603;
}

object overhead_line { //630632 {
     phases "ABCN";
     name line_630-632;
     from n630;
     to l632;
     length 2000;
     configuration lc601;
}


object overhead_line { //632671  {
     phases "ABCN";
     name line_632-671;
     from l632;
     to l671;
     length 2000;
     configuration lc601;
}

object overhead_line { //671680 {
     phases "ABCN";
     name line_671-680;
    from l671;
     to n680;
     length 1000;
     configuration lc601;
}

object overhead_line { //671684 {
     phases "ACN";
     name line_671-684;
    from l671;
     to n684;
     length 300;
     configuration lc604;
}

 object overhead_line { //684611 {
      phases "CN";
      name line_684-611;
      from n684;
      to l611;
      length 300;
      configuration lc605;
}

object underground_line { //684652 {
      phases "AN";
      name line_684-652;
      from n684;
      to l652;
      length 800;
      configuration lc607;
}

object underground_line { //692675 {
     phases "ABC";
     name line_692-675;
    from l692;
     to l675;
     length 500;
     configuration lc606;
}

object overhead_line { //632633 {
     phases "ABCN";
     name line_632-633;
     from l632;
     to n633;
     length 500;
     configuration lc602;
}

// Create node objects
object node { //633 {
     name n633;
     phases "ABCN";
     voltage_A 2401.7771;
     voltage_B -1200.8886-2080.000j;
     voltage_C -1200.8886+2080.000j;
     nominal_voltage 2401.7771;
}

//Already accounts for voltage change from regulator
// Adjusted to be 1.05 across all phases
object node { //630 {
     name n630;
     phases "ABCN";
     bustype SWING;
     voltage_A 2.5219e+03;
     voltage_B 2.5219e+03-120d;
     voltage_C 2.5219e+03+120d;
     nominal_voltage 2401.7771;
}

// object node { //650 {
//       name n650;
//       phases "ABCN";
//       bustype SWING;
//       voltage_A 2401.7771;
//       voltage_B -1200.8886-2080.000j;
//       voltage_C -1200.8886+2080.000j;
//       nominal_voltage 2401.7771;
// }

object node { //680 {
       name n680;
       phases "ABCN";
       voltage_A 2401.7771;
       voltage_B -1200.8886-2080.000j;
       voltage_C -1200.8886+2080.000j;
       nominal_voltage 2401.7771;
}


object node { //684 {
      name n684;
      phases "ACN";
      voltage_A 2401.7771;
      voltage_B -1200.8886-2080.000j;
      voltage_C -1200.8886+2080.000j;
      nominal_voltage 2401.7771;
}

// Create load objects
object load { //632 {
     name l632;
     phases "ABCN";
     voltage_A 2401.7771;
     voltage_B -1200.8886-2080.000j;
     voltage_C -1200.8886+2080.000j;
	   constant_power_A 0.00850000000000000+0.00500000000000000j MW;
     constant_power_B 0.0330000000000000+0.0190000000000000j MW;
     constant_power_C 0.0585000000000000+0.0340000000000000j MW;
     nominal_voltage 2401.7771;
	}

object load { //634 {
     name l634;
     phases "ABCN";
     voltage_A 480.000+0j;
     voltage_B -240.000-415.6922j;
     voltage_C -240.000+415.6922j;
     constant_power_A 160000+110000j;
     constant_power_B 120000+90000j;
     constant_power_C 120000+90000j;
     nominal_voltage 277.1281;
}

object load { //645 {
     name l645;
     phases "BCN";
     voltage_A 2401.7771;
     voltage_B -1200.8886-2080.000j;
     voltage_C -1200.8886+2080.000j;
     constant_power_B 170000+125000j;
     nominal_voltage 2401.7771;
}

object load { //646 {
     name l646;
     phases "BCD";
     voltage_B -1200.8886-2080.000j;
     voltage_C -1200.8886+2080.000j;
   	 constant_impedance_B 56.5993+32.4831j;
     nominal_voltage 2401.7771;
}


object load { //652 {
     name l652;
     phases "AN";
     voltage_A 2401.7771;
     voltage_B -1200.8886-2080.000j;
     voltage_C -1200.8886+2080.000j;
     constant_impedance_A 31.0501+20.8618j;
     nominal_voltage 2401.7771;
}

object load { //671 {
     name l671;
     phases "ABCD";
     voltage_A 2401.7771;
     voltage_B -1200.8886-2080.000j;
     voltage_C -1200.8886+2080.000j;
     constant_power_A 385000+220000j;
     constant_power_B 385000+220000j;
     constant_power_C 385000+220000j;
     nominal_voltage 2401.7771;
}

object load { //671 {
     name l671_dist;
     parent l671;
     phases "ABC";
     constant_power_A 0.00850000000000000+0.00500000000000000j MW;
     constant_power_B 0.0330000000000000+0.0190000000000000j MW;
     constant_power_C 0.0585000000000000+0.0340000000000000j MW;
     nominal_voltage 2401.7771;
}

object load { //675 {
     name l675;
     phases "ABC";
     voltage_A 2401.7771;
     voltage_B -1200.8886-2080.000j;
     voltage_C -1200.8886+2080.000j;
     constant_power_A 485000+190000j;
     constant_power_B 68000+60000j;
     constant_power_C 290000+212000j;
     constant_impedance_A 0.00-28.8427j;          //Shunt Capacitors
     constant_impedance_B 0.00-28.8427j;
     constant_impedance_C 0.00-28.8427j;
     nominal_voltage 2401.7771;
}

object load { //692 {
     name l692;
     phases "ABCD";
     voltage_A 2401.7771;
     voltage_B -1200.8886-2080.000j;
     voltage_C -1200.8886+2080.000j;
     constant_current_A 0+0j;
     constant_current_B 0+0j;
     constant_current_C -17.2414+51.8677j;
     nominal_voltage 2401.7771;
}

object load { //611 {
     name l611;
     phases "CN";
     voltage_A 2401.7771;
     voltage_B -1200.8886-2080.000j;
     voltage_C -1200.8886+2080.000j;
     constant_current_C -6.5443+77.9524j;
     constant_impedance_C 0.00-57.6854j;         //Shunt Capacitor
     nominal_voltage 2401.7771;
}

// Switch
object switch {
     phases "ABCN";
     name switch_671-692;
    from l671;
     to l692;
     status CLOSED;
}

// Transformer
object transformer_configuration {
	name tc400;
	connect_type WYE_WYE;
  	install_type PADMOUNT;
  	power_rating 500;
  	primary_voltage 4160;
  	secondary_voltage 480;
  	resistance 0.011;
  	reactance 0.02;
}

object transformer {
  	phases "ABCN";
  	name transformer_633-634;
  	from n633;
  	to l634;
  	configuration tc400;
}


// Regulator
object regulator_configuration {
	name regconfig6506321;
	connect_type 1;
	band_center 122.000;
	band_width 2.0;
	time_delay 30.0;
	raise_taps 16;
	lower_taps 16;
	current_transducer_ratio 700;
	power_transducer_ratio 20;
	compensator_r_setting_A 3.0;
	compensator_r_setting_B 3.0;
	compensator_r_setting_C 3.0;
	compensator_x_setting_A 9.0;
	compensator_x_setting_B 9.0;
	compensator_x_setting_C 9.0;
	CT_phase "ABC";
	PT_phase "ABC";
	regulation 0.10;
	Control MANUAL;
	Type A;
	tap_pos_A 10;
	tap_pos_B 8;
	tap_pos_C 11;
}

// object regulator {
// 	 name fregn650n630;
// 	 phases "ABC";
// 	 from n650;
// 	 to n630;
// 	 configuration regconfig6506321;
// }
